548879
  -OEChem-07172512363D

 35 36  0     1  0  0  0  0  0999 V2000
    2.1477   -0.6270   -0.2801 C   0  0  2  0  0  0  0  0  0  0  0  0
    3.2118    0.1690    0.5563 C   0  0  0  0  0  0  0  0  0  0  0  0
    2.0231    0.7392    0.0549 C   0  0  0  0  0  0  0  0  0  0  0  0
    1.4862   -1.7602    0.4499 C   0  0  0  0  0  0  0  0  0  0  0  0
    0.5222   -2.5804   -0.4138 C   0  0  0  0  0  0  0  0  0  0  0  0
    1.3729    1.8841   -0.0274 C   0  0  0  0  0  0  0  0  0  0  0  0
   -0.7909   -1.8660   -0.7353 C   0  0  0  0  0  0  0  0  0  0  0  0
    0.1352    2.1563   -0.8314 C   0  0  0  0  0  0  0  0  0  0  0  0
   -1.7204   -1.7486    0.4780 C   0  0  0  0  0  0  0  0  0  0  0  0
   -1.0716    2.5569    0.0293 C   0  0  0  0  0  0  0  0  0  0  0  0
   -2.9437   -0.8558    0.2375 C   0  0  0  0  0  0  0  0  0  0  0  0
   -1.7426    1.3666    0.7219 C   0  0  0  0  0  0  0  0  0  0  0  0
   -2.6300    0.5658   -0.2399 C   0  0  0  0  0  0  0  0  0  0  0  0
    2.4245   -0.8716   -1.2981 H   0  0  0  0  0  0  0  0  0  0  0  0
    4.1357    0.4427    0.0665 H   0  0  0  0  0  0  0  0  0  0  0  0
    3.2627    0.0111    1.6244 H   0  0  0  0  0  0  0  0  0  0  0  0
    0.9941   -1.4068    1.3624 H   0  0  0  0  0  0  0  0  0  0  0  0
    2.2813   -2.4412    0.7811 H   0  0  0  0  0  0  0  0  0  0  0  0
    0.2988   -3.5237    0.0995 H   0  0  0  0  0  0  0  0  0  0  0  0
    1.0178   -2.8457   -1.3558 H   0  0  0  0  0  0  0  0  0  0  0  0
    1.8044    2.7457    0.4786 H   0  0  0  0  0  0  0  0  0  0  0  0
   -1.3153   -2.4264   -1.5190 H   0  0  0  0  0  0  0  0  0  0  0  0
   -0.5558   -0.8883   -1.1583 H   0  0  0  0  0  0  0  0  0  0  0  0
    0.3673    2.9946   -1.5009 H   0  0  0  0  0  0  0  0  0  0  0  0
   -0.1036    1.3119   -1.4840 H   0  0  0  0  0  0  0  0  0  0  0  0
   -2.0731   -2.7519    0.7495 H   0  0  0  0  0  0  0  0  0  0  0  0
   -1.1780   -1.3827    1.3540 H   0  0  0  0  0  0  0  0  0  0  0  0
   -1.8080    3.0720   -0.5998 H   0  0  0  0  0  0  0  0  0  0  0  0
   -0.7532    3.2795    0.7913 H   0  0  0  0  0  0  0  0  0  0  0  0
   -3.5254   -0.8023    1.1659 H   0  0  0  0  0  0  0  0  0  0  0  0
   -3.5910   -1.3356   -0.5069 H   0  0  0  0  0  0  0  0  0  0  0  0
   -3.5776    1.1054   -0.3667 H   0  0  0  0  0  0  0  0  0  0  0  0
   -2.1903    0.5210   -1.2409 H   0  0  0  0  0  0  0  0  0  0  0  0
   -2.3732    1.7386    1.5389 H   0  0  0  0  0  0  0  0  0  0  0  0
   -0.9729    0.7454    1.1862 H   0  0  0  0  0  0  0  0  0  0  0  0
  1  2  1  0  0  0  0
  1  3  1  0  0  0  0
  1  4  1  0  0  0  0
  1 14  1  0  0  0  0
  2  3  1  0  0  0  0
  2 15  1  0  0  0  0
  2 16  1  0  0  0  0
  3  6  2  3  0  0  0
  4  5  1  0  0  0  0
  4 17  1  0  0  0  0
  4 18  1  0  0  0  0
  5  7  1  0  0  0  0
  5 19  1  0  0  0  0
  5 20  1  0  0  0  0
  6  8  1  0  0  0  0
  6 21  1  0  0  0  0
  7  9  1  0  0  0  0
  7 22  1  0  0  0  0
  7 23  1  0  0  0  0
  8 10  1  0  0  0  0
  8 24  1  0  0  0  0
  8 25  1  0  0  0  0
  9 11  1  0  0  0  0
  9 26  1  0  0  0  0
  9 27  1  0  0  0  0
 10 12  1  0  0  0  0
 10 28  1  0  0  0  0
 10 29  1  0  0  0  0
 11 13  1  0  0  0  0
 11 30  1  0  0  0  0
 11 31  1  0  0  0  0
 12 13  1  0  0  0  0
 12 34  1  0  0  0  0
 12 35  1  0  0  0  0
 13 32  1  0  0  0  0
 13 33  1  0  0  0  0
M  END
> <PUBCHEM_COMPOUND_CID>
548879

> <PUBCHEM_CONFORMER_RMSD>
0.6

> <PUBCHEM_CONFORMER_DIVERSEORDER>
1
2

> <PUBCHEM_MMFF94_PARTIAL_CHARGES>
10
1 -0.16
14 0.1
15 0.1
16 0.1
2 -0.16
21 0.15
3 -0.08
4 0.09
6 -0.29
8 0.14

> <PUBCHEM_EFFECTIVE_ROTOR_COUNT>
2

> <PUBCHEM_PHARMACOPHORE_FEATURES>
0

> <PUBCHEM_HEAVY_ATOM_COUNT>
13

> <PUBCHEM_ATOM_DEF_STEREO_COUNT>
0

> <PUBCHEM_ATOM_UDEF_STEREO_COUNT>
1

> <PUBCHEM_BOND_DEF_STEREO_COUNT>
0

> <PUBCHEM_BOND_UDEF_STEREO_COUNT>
1

> <PUBCHEM_ISOTOPIC_ATOM_COUNT>
0

> <PUBCHEM_COMPONENT_COUNT>
1

> <PUBCHEM_CACTVS_TAUTO_COUNT>
1

> <PUBCHEM_CONFORMER_ID>
0008600F00000001

> <PUBCHEM_MMFF94_ENERGY>
23.6615

> <PUBCHEM_FEATURE_SELFOVERLAP>
0

> <PUBCHEM_SHAPE_FINGERPRINT>
11321824 6 17769374155935324007
12382932 28 18411417293416687456
12696612 119 18191873524611043086
13618510 140 18338238287717821070
1420 336 18122907800330831442
14251711 518 18194678404633019562
14251717 144 18195805396047234927
14251745 187 18127715771753669366
15775835 57 18341337686421390553
15881359 60 18120339186602122421
16945 1 18410017602213717936
19930374 2 18118936192738464512
20201158 50 18408317796155476515
21160774 45 18335975415658106860
22802520 49 18056778536793336838
2334 1 18050287273387261692
2748010 2 18338800146728482580
2897 32 17905047310807444069
57483677 51 17905050252944567734
66348 1 18410857629165787071

> <PUBCHEM_SHAPE_MULTIPOLES>
267.53
4.21
3.3
0.84
0.12
0.09
-0.02
-0.14
0.7
-0.43
-0.37
-0.03
0
-0.05

> <PUBCHEM_SHAPE_SELFOVERLAP>
520.505

> <PUBCHEM_SHAPE_VOLUME>
160.7

> <PUBCHEM_COORDINATE_TYPE>
2
5
10

$$$$
