5367744
  -OEChem-07172512293D

 17 16  0     0  0  0  0  0  0999 V2000
    1.8139    1.2181    0.2651 O   0  0  0  0  0  0  0  0  0  0  0  0
   -2.2738    0.0502   -0.5596 C   0  0  0  0  0  0  0  0  0  0  0  0
   -0.8559    0.4495   -0.2715 C   0  0  0  0  0  0  0  0  0  0  0  0
   -3.0166   -0.3195    0.7149 C   0  0  0  0  0  0  0  0  0  0  0  0
    0.1629   -0.4202   -0.2504 C   0  0  0  0  0  0  0  0  0  0  0  0
    1.5469    0.0380    0.0506 C   0  0  0  0  0  0  0  0  0  0  0  0
    2.6226   -1.0161    0.0508 C   0  0  0  0  0  0  0  0  0  0  0  0
   -2.7833    0.8791   -1.0640 H   0  0  0  0  0  0  0  0  0  0  0  0
   -2.2973   -0.7993   -1.2528 H   0  0  0  0  0  0  0  0  0  0  0  0
   -0.6898    1.5014   -0.0539 H   0  0  0  0  0  0  0  0  0  0  0  0
   -3.0354    0.5189    1.4194 H   0  0  0  0  0  0  0  0  0  0  0  0
   -2.5494   -1.1749    1.2147 H   0  0  0  0  0  0  0  0  0  0  0  0
   -4.0520   -0.5890    0.4832 H   0  0  0  0  0  0  0  0  0  0  0  0
    0.0078   -1.4738   -0.4545 H   0  0  0  0  0  0  0  0  0  0  0  0
    3.3018   -0.8351    0.8887 H   0  0  0  0  0  0  0  0  0  0  0  0
    3.1734   -0.9706   -0.8920 H   0  0  0  0  0  0  0  0  0  0  0  0
    2.1982   -2.0162    0.1741 H   0  0  0  0  0  0  0  0  0  0  0  0
  1  6  2  0  0  0  0
  2  3  1  0  0  0  0
  2  4  1  0  0  0  0
  2  8  1  0  0  0  0
  2  9  1  0  0  0  0
  3  5  2  0  0  0  0
  3 10  1  0  0  0  0
  4 11  1  0  0  0  0
  4 12  1  0  0  0  0
  4 13  1  0  0  0  0
  5  6  1  0  0  0  0
  5 14  1  0  0  0  0
  6  7  1  0  0  0  0
  7 15  1  0  0  0  0
  7 16  1  0  0  0  0
  7 17  1  0  0  0  0
M  END
> <PUBCHEM_COMPOUND_CID>
5367744

> <PUBCHEM_CONFORMER_RMSD>
0.4

> <PUBCHEM_CONFORMER_DIVERSEORDER>
2
7
9
1
5
4
8
12
3
11
6
10

> <PUBCHEM_MMFF94_PARTIAL_CHARGES>
8
1 -0.57
10 0.15
14 0.15
2 0.14
3 -0.29
5 -0.14
6 0.49
7 0.06

> <PUBCHEM_EFFECTIVE_ROTOR_COUNT>
2

> <PUBCHEM_PHARMACOPHORE_FEATURES>
2
1 1 acceptor
1 4 hydrophobe

> <PUBCHEM_HEAVY_ATOM_COUNT>
7

> <PUBCHEM_ATOM_DEF_STEREO_COUNT>
0

> <PUBCHEM_ATOM_UDEF_STEREO_COUNT>
0

> <PUBCHEM_BOND_DEF_STEREO_COUNT>
1

> <PUBCHEM_BOND_UDEF_STEREO_COUNT>
0

> <PUBCHEM_ISOTOPIC_ATOM_COUNT>
0

> <PUBCHEM_COMPONENT_COUNT>
1

> <PUBCHEM_CACTVS_TAUTO_COUNT>
5

> <PUBCHEM_CONFORMER_ID>
0051E7C000000002

> <PUBCHEM_MMFF94_ENERGY>
4.3615

> <PUBCHEM_FEATURE_SELFOVERLAP>
10.148

> <PUBCHEM_SHAPE_FINGERPRINT>
10857977 72 17676765478520039801
12897270 3 7925623419009578242
12932741 1 17894901928123647165
12932764 1 18410853269795126351
14390081 3 12607407672063959675
29004967 10 18259984889933674113
5460574 1 11384114150197715127

> <PUBCHEM_SHAPE_MULTIPOLES>
138.19
4.57
0.98
0.75
1.16
0.08
-0.01
-0.88
-0.64
-0.54
-0.07
0.31
-0.02
0.24

> <PUBCHEM_SHAPE_SELFOVERLAP>
249.43

> <PUBCHEM_SHAPE_VOLUME>
89.2

> <PUBCHEM_COORDINATE_TYPE>
2
5
10

$$$$
