635296
  -OEChem-07172513022D

151150  0     1  0  0  0  0  0999 V2000
   15.8564    7.2500    0.0000 O   0  0  0  0  0  0  0  0  0  0  0  0
   15.8564    5.2500    0.0000 O   0  0  0  0  0  0  0  0  0  0  0  0
   18.4545    6.7500    0.0000 O   0  0  0  0  0  0  0  0  0  0  0  0
   19.3205    8.2500    0.0000 O   0  0  0  0  0  0  0  0  0  0  0  0
   12.3923   -1.7500    0.0000 C   0  0  0  0  0  0  0  0  0  0  0  0
   12.3923   -0.7500    0.0000 C   0  0  0  0  0  0  0  0  0  0  0  0
   11.5263   -2.2500    0.0000 C   0  0  0  0  0  0  0  0  0  0  0  0
   13.2583   -0.2500    0.0000 C   0  0  0  0  0  0  0  0  0  0  0  0
   11.5263   -3.2500    0.0000 C   0  0  0  0  0  0  0  0  0  0  0  0
   13.2583    0.7500    0.0000 C   0  0  0  0  0  0  0  0  0  0  0  0
    8.9282    7.2500    0.0000 C   0  0  0  0  0  0  0  0  0  0  0  0
   10.6603   -3.7500    0.0000 C   0  0  0  0  0  0  0  0  0  0  0  0
    9.7942    6.7500    0.0000 C   0  0  0  0  0  0  0  0  0  0  0  0
    8.0622    6.7500    0.0000 C   0  0  0  0  0  0  0  0  0  0  0  0
   10.6603    7.2500    0.0000 C   0  0  0  0  0  0  0  0  0  0  0  0
   14.1244    1.2500    0.0000 C   0  0  0  0  0  0  0  0  0  0  0  0
    7.1962    7.2500    0.0000 C   0  0  0  0  0  0  0  0  0  0  0  0
   11.5263    6.7500    0.0000 C   0  0  0  0  0  0  0  0  0  0  0  0
   10.6603   -4.7500    0.0000 C   0  0  0  0  0  0  0  0  0  0  0  0
   14.1244    2.2500    0.0000 C   0  0  0  0  0  0  0  0  0  0  0  0
    6.3301    6.7500    0.0000 C   0  0  0  0  0  0  0  0  0  0  0  0
   12.3923    7.2500    0.0000 C   0  0  0  0  0  0  0  0  0  0  0  0
    9.7942   -5.2500    0.0000 C   0  0  0  0  0  0  0  0  0  0  0  0
    5.4641    7.2500    0.0000 C   0  0  0  0  0  0  0  0  0  0  0  0
   14.9904    2.7500    0.0000 C   0  0  0  0  0  0  0  0  0  0  0  0
   13.2583    6.7500    0.0000 C   0  0  0  0  0  0  0  0  0  0  0  0
    9.7942   -6.2500    0.0000 C   0  0  0  0  0  0  0  0  0  0  0  0
    4.5981    6.7500    0.0000 C   0  0  0  0  0  0  0  0  0  0  0  0
   14.1244    7.2500    0.0000 C   0  0  0  0  0  0  0  0  0  0  0  0
   14.9904    3.7500    0.0000 C   0  0  0  0  0  0  0  0  0  0  0  0
    8.9282   -6.7500    0.0000 C   0  0  0  0  0  0  0  0  0  0  0  0
    3.7321    7.2500    0.0000 C   0  0  0  0  0  0  0  0  0  0  0  0
   14.9904    6.7500    0.0000 C   0  0  0  0  0  0  0  0  0  0  0  0
   23.6506    6.7500    0.0000 C   0  0  0  0  0  0  0  0  0  0  0  0
   15.8564    4.2500    0.0000 C   0  0  0  0  0  0  0  0  0  0  0  0
   16.7224    6.7500    0.0000 C   0  0  3  0  0  0  0  0  0  0  0  0
   24.5167    7.2500    0.0000 C   0  0  0  0  0  0  0  0  0  0  0  0
   22.7846    7.2500    0.0000 C   0  0  0  0  0  0  0  0  0  0  0  0
   25.3827    6.7500    0.0000 C   0  0  0  0  0  0  0  0  0  0  0  0
   21.9186    6.7500    0.0000 C   0  0  0  0  0  0  0  0  0  0  0  0
   16.7224    5.7500    0.0000 C   0  0  0  0  0  0  0  0  0  0  0  0
    8.9282   -7.7500    0.0000 C   0  0  0  0  0  0  0  0  0  0  0  0
   26.2487    7.2500    0.0000 C   0  0  0  0  0  0  0  0  0  0  0  0
    2.8660    6.7500    0.0000 C   0  0  0  0  0  0  0  0  0  0  0  0
   21.0526    7.2500    0.0000 C   0  0  0  0  0  0  0  0  0  0  0  0
   17.5885    7.2500    0.0000 C   0  0  0  0  0  0  0  0  0  0  0  0
   27.1147    6.7500    0.0000 C   0  0  0  0  0  0  0  0  0  0  0  0
   20.1865    6.7500    0.0000 C   0  0  0  0  0  0  0  0  0  0  0  0
   27.9808    7.2500    0.0000 C   0  0  0  0  0  0  0  0  0  0  0  0
    8.0622   -8.2500    0.0000 C   0  0  0  0  0  0  0  0  0  0  0  0
    2.0000    7.2500    0.0000 C   0  0  0  0  0  0  0  0  0  0  0  0
   19.3205    7.2500    0.0000 C   0  0  0  0  0  0  0  0  0  0  0  0
   28.8468    6.7500    0.0000 C   0  0  0  0  0  0  0  0  0  0  0  0
   12.6044   -2.3326    0.0000 H   0  0  0  0  0  0  0  0  0  0  0  0
   13.0029   -1.6423    0.0000 H   0  0  0  0  0  0  0  0  0  0  0  0
   12.1803   -0.1674    0.0000 H   0  0  0  0  0  0  0  0  0  0  0  0
   11.7817   -0.8577    0.0000 H   0  0  0  0  0  0  0  0  0  0  0  0
   11.3142   -1.6674    0.0000 H   0  0  0  0  0  0  0  0  0  0  0  0
   10.9157   -2.3577    0.0000 H   0  0  0  0  0  0  0  0  0  0  0  0
   13.4704   -0.8326    0.0000 H   0  0  0  0  0  0  0  0  0  0  0  0
   13.8689   -0.1423    0.0000 H   0  0  0  0  0  0  0  0  0  0  0  0
   11.7383   -3.8326    0.0000 H   0  0  0  0  0  0  0  0  0  0  0  0
   12.1369   -3.1423    0.0000 H   0  0  0  0  0  0  0  0  0  0  0  0
   13.0463    1.3326    0.0000 H   0  0  0  0  0  0  0  0  0  0  0  0
   12.6477    0.6423    0.0000 H   0  0  0  0  0  0  0  0  0  0  0  0
    9.3267    7.7250    0.0000 H   0  0  0  0  0  0  0  0  0  0  0  0
    8.5297    7.7250    0.0000 H   0  0  0  0  0  0  0  0  0  0  0  0
    9.3957    6.2751    0.0000 H   0  0  0  0  0  0  0  0  0  0  0  0
   10.1928    6.2751    0.0000 H   0  0  0  0  0  0  0  0  0  0  0  0
   10.4482   -3.1674    0.0000 H   0  0  0  0  0  0  0  0  0  0  0  0
   10.0497   -3.8577    0.0000 H   0  0  0  0  0  0  0  0  0  0  0  0
    7.6637    6.2751    0.0000 H   0  0  0  0  0  0  0  0  0  0  0  0
    8.4607    6.2751    0.0000 H   0  0  0  0  0  0  0  0  0  0  0  0
   11.0588    7.7250    0.0000 H   0  0  0  0  0  0  0  0  0  0  0  0
   10.2617    7.7250    0.0000 H   0  0  0  0  0  0  0  0  0  0  0  0
   14.3364    0.6674    0.0000 H   0  0  0  0  0  0  0  0  0  0  0  0
   14.7349    1.3577    0.0000 H   0  0  0  0  0  0  0  0  0  0  0  0
    7.5947    7.7250    0.0000 H   0  0  0  0  0  0  0  0  0  0  0  0
    6.7976    7.7250    0.0000 H   0  0  0  0  0  0  0  0  0  0  0  0
   11.1278    6.2751    0.0000 H   0  0  0  0  0  0  0  0  0  0  0  0
   11.9248    6.2751    0.0000 H   0  0  0  0  0  0  0  0  0  0  0  0
   10.8723   -5.3326    0.0000 H   0  0  0  0  0  0  0  0  0  0  0  0
   11.2708   -4.6423    0.0000 H   0  0  0  0  0  0  0  0  0  0  0  0
   13.9123    2.8326    0.0000 H   0  0  0  0  0  0  0  0  0  0  0  0
   13.5138    2.1423    0.0000 H   0  0  0  0  0  0  0  0  0  0  0  0
    5.9316    6.2751    0.0000 H   0  0  0  0  0  0  0  0  0  0  0  0
    6.7287    6.2751    0.0000 H   0  0  0  0  0  0  0  0  0  0  0  0
   12.7908    7.7250    0.0000 H   0  0  0  0  0  0  0  0  0  0  0  0
   11.9938    7.7250    0.0000 H   0  0  0  0  0  0  0  0  0  0  0  0
    9.5822   -4.6674    0.0000 H   0  0  0  0  0  0  0  0  0  0  0  0
    9.1837   -5.3577    0.0000 H   0  0  0  0  0  0  0  0  0  0  0  0
    5.8626    7.7250    0.0000 H   0  0  0  0  0  0  0  0  0  0  0  0
    5.0656    7.7250    0.0000 H   0  0  0  0  0  0  0  0  0  0  0  0
   15.2024    2.1674    0.0000 H   0  0  0  0  0  0  0  0  0  0  0  0
   15.6010    2.8577    0.0000 H   0  0  0  0  0  0  0  0  0  0  0  0
   12.8598    6.2751    0.0000 H   0  0  0  0  0  0  0  0  0  0  0  0
   13.6569    6.2751    0.0000 H   0  0  0  0  0  0  0  0  0  0  0  0
   10.0063   -6.8326    0.0000 H   0  0  0  0  0  0  0  0  0  0  0  0
   10.4048   -6.1423    0.0000 H   0  0  0  0  0  0  0  0  0  0  0  0
    4.1996    6.2751    0.0000 H   0  0  0  0  0  0  0  0  0  0  0  0
    4.9966    6.2751    0.0000 H   0  0  0  0  0  0  0  0  0  0  0  0
   14.5229    7.7250    0.0000 H   0  0  0  0  0  0  0  0  0  0  0  0
   13.7258    7.7250    0.0000 H   0  0  0  0  0  0  0  0  0  0  0  0
   14.7783    4.3326    0.0000 H   0  0  0  0  0  0  0  0  0  0  0  0
   14.3798    3.6423    0.0000 H   0  0  0  0  0  0  0  0  0  0  0  0
    8.7162   -6.1674    0.0000 H   0  0  0  0  0  0  0  0  0  0  0  0
    8.3176   -6.8577    0.0000 H   0  0  0  0  0  0  0  0  0  0  0  0
    4.1306    7.7250    0.0000 H   0  0  0  0  0  0  0  0  0  0  0  0
    3.3335    7.7250    0.0000 H   0  0  0  0  0  0  0  0  0  0  0  0
   14.5919    6.2751    0.0000 H   0  0  0  0  0  0  0  0  0  0  0  0
   15.3889    6.2751    0.0000 H   0  0  0  0  0  0  0  0  0  0  0  0
   23.2521    6.2751    0.0000 H   0  0  0  0  0  0  0  0  0  0  0  0
   24.0492    6.2751    0.0000 H   0  0  0  0  0  0  0  0  0  0  0  0
   16.0685    3.6674    0.0000 H   0  0  0  0  0  0  0  0  0  0  0  0
   16.4670    4.3577    0.0000 H   0  0  0  0  0  0  0  0  0  0  0  0
   15.9863    6.3250    0.0000 H   0  0  0  0  0  0  0  0  0  0  0  0
   24.9152    7.7250    0.0000 H   0  0  0  0  0  0  0  0  0  0  0  0
   24.1181    7.7250    0.0000 H   0  0  0  0  0  0  0  0  0  0  0  0
   23.1831    7.7250    0.0000 H   0  0  0  0  0  0  0  0  0  0  0  0
   22.3861    7.7250    0.0000 H   0  0  0  0  0  0  0  0  0  0  0  0
   24.9842    6.2751    0.0000 H   0  0  0  0  0  0  0  0  0  0  0  0
   25.7812    6.2751    0.0000 H   0  0  0  0  0  0  0  0  0  0  0  0
   21.5201    6.2751    0.0000 H   0  0  0  0  0  0  0  0  0  0  0  0
   22.3171    6.2751    0.0000 H   0  0  0  0  0  0  0  0  0  0  0  0
   16.9345    5.1674    0.0000 H   0  0  0  0  0  0  0  0  0  0  0  0
   17.3330    5.8577    0.0000 H   0  0  0  0  0  0  0  0  0  0  0  0
    9.1403   -8.3326    0.0000 H   0  0  0  0  0  0  0  0  0  0  0  0
    9.5388   -7.6423    0.0000 H   0  0  0  0  0  0  0  0  0  0  0  0
   26.6472    7.7250    0.0000 H   0  0  0  0  0  0  0  0  0  0  0  0
   25.8502    7.7250    0.0000 H   0  0  0  0  0  0  0  0  0  0  0  0
    2.4675    6.2751    0.0000 H   0  0  0  0  0  0  0  0  0  0  0  0
    3.2646    6.2751    0.0000 H   0  0  0  0  0  0  0  0  0  0  0  0
   21.4511    7.7250    0.0000 H   0  0  0  0  0  0  0  0  0  0  0  0
   20.6540    7.7250    0.0000 H   0  0  0  0  0  0  0  0  0  0  0  0
   17.9870    7.7250    0.0000 H   0  0  0  0  0  0  0  0  0  0  0  0
   17.1899    7.7250    0.0000 H   0  0  0  0  0  0  0  0  0  0  0  0
   26.7162    6.2751    0.0000 H   0  0  0  0  0  0  0  0  0  0  0  0
   27.5133    6.2751    0.0000 H   0  0  0  0  0  0  0  0  0  0  0  0
   19.7880    6.2751    0.0000 H   0  0  0  0  0  0  0  0  0  0  0  0
   20.5851    6.2751    0.0000 H   0  0  0  0  0  0  0  0  0  0  0  0
   28.3793    7.7250    0.0000 H   0  0  0  0  0  0  0  0  0  0  0  0
   27.5822    7.7250    0.0000 H   0  0  0  0  0  0  0  0  0  0  0  0
    7.7522   -7.7131    0.0000 H   0  0  0  0  0  0  0  0  0  0  0  0
    7.5252   -8.5600    0.0000 H   0  0  0  0  0  0  0  0  0  0  0  0
    8.3722   -8.7869    0.0000 H   0  0  0  0  0  0  0  0  0  0  0  0
    2.3100    7.7869    0.0000 H   0  0  0  0  0  0  0  0  0  0  0  0
    1.4631    7.5600    0.0000 H   0  0  0  0  0  0  0  0  0  0  0  0
    1.6900    6.7131    0.0000 H   0  0  0  0  0  0  0  0  0  0  0  0
   28.5368    6.2131    0.0000 H   0  0  0  0  0  0  0  0  0  0  0  0
   29.3837    6.4400    0.0000 H   0  0  0  0  0  0  0  0  0  0  0  0
   29.1568    7.2869    0.0000 H   0  0  0  0  0  0  0  0  0  0  0  0
  1 33  1  0  0  0  0
  1 36  1  0  0  0  0
  2 35  1  0  0  0  0
  2 41  1  0  0  0  0
  3 46  1  0  0  0  0
  3 52  1  0  0  0  0
  4 52  2  0  0  0  0
  5  6  1  0  0  0  0
  5  7  1  0  0  0  0
  5 54  1  0  0  0  0
  5 55  1  0  0  0  0
  6  8  1  0  0  0  0
  6 56  1  0  0  0  0
  6 57  1  0  0  0  0
  7  9  1  0  0  0  0
  7 58  1  0  0  0  0
  7 59  1  0  0  0  0
  8 10  1  0  0  0  0
  8 60  1  0  0  0  0
  8 61  1  0  0  0  0
  9 12  1  0  0  0  0
  9 62  1  0  0  0  0
  9 63  1  0  0  0  0
 10 16  1  0  0  0  0
 10 64  1  0  0  0  0
 10 65  1  0  0  0  0
 11 13  1  0  0  0  0
 11 14  1  0  0  0  0
 11 66  1  0  0  0  0
 11 67  1  0  0  0  0
 12 19  1  0  0  0  0
 12 70  1  0  0  0  0
 12 71  1  0  0  0  0
 13 15  1  0  0  0  0
 13 68  1  0  0  0  0
 13 69  1  0  0  0  0
 14 17  1  0  0  0  0
 14 72  1  0  0  0  0
 14 73  1  0  0  0  0
 15 18  1  0  0  0  0
 15 74  1  0  0  0  0
 15 75  1  0  0  0  0
 16 20  1  0  0  0  0
 16 76  1  0  0  0  0
 16 77  1  0  0  0  0
 17 21  1  0  0  0  0
 17 78  1  0  0  0  0
 17 79  1  0  0  0  0
 18 22  1  0  0  0  0
 18 80  1  0  0  0  0
 18 81  1  0  0  0  0
 19 23  1  0  0  0  0
 19 82  1  0  0  0  0
 19 83  1  0  0  0  0
 20 25  1  0  0  0  0
 20 84  1  0  0  0  0
 20 85  1  0  0  0  0
 21 24  1  0  0  0  0
 21 86  1  0  0  0  0
 21 87  1  0  0  0  0
 22 26  1  0  0  0  0
 22 88  1  0  0  0  0
 22 89  1  0  0  0  0
 23 27  1  0  0  0  0
 23 90  1  0  0  0  0
 23 91  1  0  0  0  0
 24 28  1  0  0  0  0
 24 92  1  0  0  0  0
 24 93  1  0  0  0  0
 25 30  1  0  0  0  0
 25 94  1  0  0  0  0
 25 95  1  0  0  0  0
 26 29  1  0  0  0  0
 26 96  1  0  0  0  0
 26 97  1  0  0  0  0
 27 31  1  0  0  0  0
 27 98  1  0  0  0  0
 27 99  1  0  0  0  0
 28 32  1  0  0  0  0
 28100  1  0  0  0  0
 28101  1  0  0  0  0
 29 33  1  0  0  0  0
 29102  1  0  0  0  0
 29103  1  0  0  0  0
 30 35  1  0  0  0  0
 30104  1  0  0  0  0
 30105  1  0  0  0  0
 31 42  1  0  0  0  0
 31106  1  0  0  0  0
 31107  1  0  0  0  0
 32 44  1  0  0  0  0
 32108  1  0  0  0  0
 32109  1  0  0  0  0
 33110  1  0  0  0  0
 33111  1  0  0  0  0
 34 37  1  0  0  0  0
 34 38  1  0  0  0  0
 34112  1  0  0  0  0
 34113  1  0  0  0  0
 35114  1  0  0  0  0
 35115  1  0  0  0  0
 36 41  1  0  0  0  0
 36 46  1  0  0  0  0
 36116  1  0  0  0  0
 37 39  1  0  0  0  0
 37117  1  0  0  0  0
 37118  1  0  0  0  0
 38 40  1  0  0  0  0
 38119  1  0  0  0  0
 38120  1  0  0  0  0
 39 43  1  0  0  0  0
 39121  1  0  0  0  0
 39122  1  0  0  0  0
 40 45  1  0  0  0  0
 40123  1  0  0  0  0
 40124  1  0  0  0  0
 41125  1  0  0  0  0
 41126  1  0  0  0  0
 42 50  1  0  0  0  0
 42127  1  0  0  0  0
 42128  1  0  0  0  0
 43 47  1  0  0  0  0
 43129  1  0  0  0  0
 43130  1  0  0  0  0
 44 51  1  0  0  0  0
 44131  1  0  0  0  0
 44132  1  0  0  0  0
 45 48  1  0  0  0  0
 45133  1  0  0  0  0
 45134  1  0  0  0  0
 46135  1  0  0  0  0
 46136  1  0  0  0  0
 47 49  1  0  0  0  0
 47137  1  0  0  0  0
 47138  1  0  0  0  0
 48 52  1  0  0  0  0
 48139  1  0  0  0  0
 48140  1  0  0  0  0
 49 53  1  0  0  0  0
 49141  1  0  0  0  0
 49142  1  0  0  0  0
 50143  1  0  0  0  0
 50144  1  0  0  0  0
 50145  1  0  0  0  0
 51146  1  0  0  0  0
 51147  1  0  0  0  0
 51148  1  0  0  0  0
 53149  1  0  0  0  0
 53150  1  0  0  0  0
 53151  1  0  0  0  0
M  END
> <PUBCHEM_COMPOUND_CID>
635296

> <PUBCHEM_COMPOUND_CANONICALIZED>
1

> <PUBCHEM_CACTVS_COMPLEXITY>
667

> <PUBCHEM_CACTVS_HBOND_ACCEPTOR>
4

> <PUBCHEM_CACTVS_HBOND_DONOR>
0

> <PUBCHEM_CACTVS_ROTATABLE_BOND>
48

> <PUBCHEM_CACTVS_SUBSKEYS>
AAADcfB8OAAAAAAAAAAAAAAAAAAAAAAAAAAAAAAAAAAAAAAAAAAAGgAAAAAACBSggAICCAAABAAIAACQCAAAAAAAAAAAAAEAAAABABIAAAACAAAFAAACAAGIyKCAAAAAAAAAAAAAAAAAAAAAAAAAAAAAAA==

> <PUBCHEM_IUPAC_OPENEYE_NAME>
(2-hexadecoxy-3-octadecoxy-propyl) dodecanoate

> <PUBCHEM_IUPAC_CAS_NAME>
dodecanoic acid (2-hexadecoxy-3-octadecoxypropyl) ester

> <PUBCHEM_IUPAC_NAME_MARKUP>
(2-hexadecoxy-3-octadecoxypropyl) dodecanoate

> <PUBCHEM_IUPAC_NAME>
(2-hexadecoxy-3-octadecoxypropyl) dodecanoate

> <PUBCHEM_IUPAC_SYSTEMATIC_NAME>
(2-hexadecoxy-3-octadecoxy-propyl) dodecanoate

> <PUBCHEM_IUPAC_TRADITIONAL_NAME>
lauric acid (2-cetyloxy-3-stearyloxy-propyl) ester

> <PUBCHEM_IUPAC_INCHI>
InChI=1S/C49H98O4/c1-4-7-10-13-16-19-21-23-25-26-27-29-32-35-38-41-44-51-46-48(47-53-49(50)43-40-37-34-31-18-15-12-9-6-3)52-45-42-39-36-33-30-28-24-22-20-17-14-11-8-5-2/h48H,4-47H2,1-3H3

> <PUBCHEM_IUPAC_INCHIKEY>
DITSJCRPKKTEMA-UHFFFAOYSA-N

> <PUBCHEM_XLOGP3_AA>
21.6

> <PUBCHEM_EXACT_MASS>
750.74651160

> <PUBCHEM_MOLECULAR_FORMULA>
C49H98O4

> <PUBCHEM_MOLECULAR_WEIGHT>
751.3

> <PUBCHEM_SMILES>
CCCCCCCCCCCCCCCCCCOCC(COC(=O)CCCCCCCCCCC)OCCCCCCCCCCCCCCCC

> <PUBCHEM_CONNECTIVITY_SMILES>
CCCCCCCCCCCCCCCCCCOCC(COC(=O)CCCCCCCCCCC)OCCCCCCCCCCCCCCCC

> <PUBCHEM_CACTVS_TPSA>
44.8

> <PUBCHEM_MONOISOTOPIC_WEIGHT>
750.74651160

> <PUBCHEM_TOTAL_CHARGE>
0

> <PUBCHEM_HEAVY_ATOM_COUNT>
53

> <PUBCHEM_ATOM_DEF_STEREO_COUNT>
0

> <PUBCHEM_ATOM_UDEF_STEREO_COUNT>
1

> <PUBCHEM_BOND_DEF_STEREO_COUNT>
0

> <PUBCHEM_BOND_UDEF_STEREO_COUNT>
0

> <PUBCHEM_ISOTOPIC_ATOM_COUNT>
0

> <PUBCHEM_COMPONENT_COUNT>
1

> <PUBCHEM_CACTVS_TAUTO_COUNT>
-1

> <PUBCHEM_COORDINATE_TYPE>
1
5
255

> <PUBCHEM_BONDANNOTATIONS>
36  116  3

$$$$
