62642
  -OEChem-07172512572D

 64 64  0     1  0  0  0  0  0999 V2000
   11.1603   -7.9330    0.0000 O   0  0  0  0  0  0  0  0  0  0  0  0
    9.7942   -5.5670    0.0000 O   0  0  0  0  0  0  0  0  0  0  0  0
    8.0622   -5.5670    0.0000 O   0  0  0  0  0  0  0  0  0  0  0  0
    5.4641    0.9330    0.0000 C   0  0  0  0  0  0  0  0  0  0  0  0
    5.4641    1.9330    0.0000 C   0  0  0  0  0  0  0  0  0  0  0  0
    6.3301    0.4330    0.0000 C   0  0  0  0  0  0  0  0  0  0  0  0
    4.5981    2.4330    0.0000 C   0  0  0  0  0  0  0  0  0  0  0  0
    6.3301   -0.5670    0.0000 C   0  0  0  0  0  0  0  0  0  0  0  0
    4.5981    3.4330    0.0000 C   0  0  0  0  0  0  0  0  0  0  0  0
    7.1962   -1.0670    0.0000 C   0  0  0  0  0  0  0  0  0  0  0  0
    3.7321    3.9330    0.0000 C   0  0  0  0  0  0  0  0  0  0  0  0
    7.1962   -2.0670    0.0000 C   0  0  0  0  0  0  0  0  0  0  0  0
    3.7321    4.9330    0.0000 C   0  0  0  0  0  0  0  0  0  0  0  0
    8.0622   -2.5670    0.0000 C   0  0  0  0  0  0  0  0  0  0  0  0
    2.8660    5.4330    0.0000 C   0  0  0  0  0  0  0  0  0  0  0  0
   10.6603   -7.0670    0.0000 C   0  0  3  0  0  0  0  0  0  0  0  0
    8.0622   -3.5670    0.0000 C   0  0  0  0  0  0  0  0  0  0  0  0
   11.6603   -7.0670    0.0000 C   0  0  0  0  0  0  0  0  0  0  0  0
    2.8660    6.4330    0.0000 C   0  0  0  0  0  0  0  0  0  0  0  0
    9.7942   -6.5670    0.0000 C   0  0  0  0  0  0  0  0  0  0  0  0
    8.9282   -4.0670    0.0000 C   0  0  0  0  0  0  0  0  0  0  0  0
    2.0000    6.9330    0.0000 C   0  0  0  0  0  0  0  0  0  0  0  0
    8.9282   -5.0670    0.0000 C   0  0  0  0  0  0  0  0  0  0  0  0
    2.0000    7.9330    0.0000 C   0  0  0  0  0  0  0  0  0  0  0  0
    4.8535    1.0407    0.0000 H   0  0  0  0  0  0  0  0  0  0  0  0
    5.2521    0.3504    0.0000 H   0  0  0  0  0  0  0  0  0  0  0  0
    6.0747    1.8254    0.0000 H   0  0  0  0  0  0  0  0  0  0  0  0
    5.6762    2.5156    0.0000 H   0  0  0  0  0  0  0  0  0  0  0  0
    6.9407    0.3254    0.0000 H   0  0  0  0  0  0  0  0  0  0  0  0
    6.5422    1.0156    0.0000 H   0  0  0  0  0  0  0  0  0  0  0  0
    3.9875    2.5407    0.0000 H   0  0  0  0  0  0  0  0  0  0  0  0
    4.3860    1.8504    0.0000 H   0  0  0  0  0  0  0  0  0  0  0  0
    5.7196   -0.4593    0.0000 H   0  0  0  0  0  0  0  0  0  0  0  0
    6.1181   -1.1496    0.0000 H   0  0  0  0  0  0  0  0  0  0  0  0
    5.2087    3.3254    0.0000 H   0  0  0  0  0  0  0  0  0  0  0  0
    4.8101    4.0156    0.0000 H   0  0  0  0  0  0  0  0  0  0  0  0
    7.8067   -1.1747    0.0000 H   0  0  0  0  0  0  0  0  0  0  0  0
    7.4082   -0.4844    0.0000 H   0  0  0  0  0  0  0  0  0  0  0  0
    3.1215    4.0407    0.0000 H   0  0  0  0  0  0  0  0  0  0  0  0
    3.5200    3.3504    0.0000 H   0  0  0  0  0  0  0  0  0  0  0  0
    6.5856   -1.9593    0.0000 H   0  0  0  0  0  0  0  0  0  0  0  0
    6.9841   -2.6496    0.0000 H   0  0  0  0  0  0  0  0  0  0  0  0
    4.3426    4.8254    0.0000 H   0  0  0  0  0  0  0  0  0  0  0  0
    3.9441    5.5156    0.0000 H   0  0  0  0  0  0  0  0  0  0  0  0
    8.6728   -2.6747    0.0000 H   0  0  0  0  0  0  0  0  0  0  0  0
    8.2742   -1.9844    0.0000 H   0  0  0  0  0  0  0  0  0  0  0  0
    2.2554    5.5407    0.0000 H   0  0  0  0  0  0  0  0  0  0  0  0
    2.6540    4.8504    0.0000 H   0  0  0  0  0  0  0  0  0  0  0  0
   10.0592   -7.6680    0.0000 H   0  0  0  0  0  0  0  0  0  0  0  0
    7.4516   -3.4593    0.0000 H   0  0  0  0  0  0  0  0  0  0  0  0
    7.8501   -4.1496    0.0000 H   0  0  0  0  0  0  0  0  0  0  0  0
   12.2429   -7.2790    0.0000 H   0  0  0  0  0  0  0  0  0  0  0  0
   11.7679   -6.4564    0.0000 H   0  0  0  0  0  0  0  0  0  0  0  0
    3.4766    6.3254    0.0000 H   0  0  0  0  0  0  0  0  0  0  0  0
    3.0781    7.0156    0.0000 H   0  0  0  0  0  0  0  0  0  0  0  0
    9.1837   -6.4593    0.0000 H   0  0  0  0  0  0  0  0  0  0  0  0
    9.5822   -7.1496    0.0000 H   0  0  0  0  0  0  0  0  0  0  0  0
    9.5388   -4.1747    0.0000 H   0  0  0  0  0  0  0  0  0  0  0  0
    9.1403   -3.4844    0.0000 H   0  0  0  0  0  0  0  0  0  0  0  0
    1.3894    7.0407    0.0000 H   0  0  0  0  0  0  0  0  0  0  0  0
    1.7880    6.3504    0.0000 H   0  0  0  0  0  0  0  0  0  0  0  0
    2.6200    7.9330    0.0000 H   0  0  0  0  0  0  0  0  0  0  0  0
    2.0000    8.5530    0.0000 H   0  0  0  0  0  0  0  0  0  0  0  0
    1.3800    7.9330    0.0000 H   0  0  0  0  0  0  0  0  0  0  0  0
  1 16  1  0  0  0  0
  1 18  1  0  0  0  0
  2 20  1  0  0  0  0
  2 23  1  0  0  0  0
  3 23  2  0  0  0  0
  4  5  1  0  0  0  0
  4  6  1  0  0  0  0
  4 25  1  0  0  0  0
  4 26  1  0  0  0  0
  5  7  1  0  0  0  0
  5 27  1  0  0  0  0
  5 28  1  0  0  0  0
  6  8  1  0  0  0  0
  6 29  1  0  0  0  0
  6 30  1  0  0  0  0
  7  9  1  0  0  0  0
  7 31  1  0  0  0  0
  7 32  1  0  0  0  0
  8 10  1  0  0  0  0
  8 33  1  0  0  0  0
  8 34  1  0  0  0  0
  9 11  1  0  0  0  0
  9 35  1  0  0  0  0
  9 36  1  0  0  0  0
 10 12  1  0  0  0  0
 10 37  1  0  0  0  0
 10 38  1  0  0  0  0
 11 13  1  0  0  0  0
 11 39  1  0  0  0  0
 11 40  1  0  0  0  0
 12 14  1  0  0  0  0
 12 41  1  0  0  0  0
 12 42  1  0  0  0  0
 13 15  1  0  0  0  0
 13 43  1  0  0  0  0
 13 44  1  0  0  0  0
 14 17  1  0  0  0  0
 14 45  1  0  0  0  0
 14 46  1  0  0  0  0
 15 19  1  0  0  0  0
 15 47  1  0  0  0  0
 15 48  1  0  0  0  0
 16 18  1  0  0  0  0
 16 20  1  0  0  0  0
 16 49  1  0  0  0  0
 17 21  1  0  0  0  0
 17 50  1  0  0  0  0
 17 51  1  0  0  0  0
 18 52  1  0  0  0  0
 18 53  1  0  0  0  0
 19 22  1  0  0  0  0
 19 54  1  0  0  0  0
 19 55  1  0  0  0  0
 20 56  1  0  0  0  0
 20 57  1  0  0  0  0
 21 23  1  0  0  0  0
 21 58  1  0  0  0  0
 21 59  1  0  0  0  0
 22 24  1  0  0  0  0
 22 60  1  0  0  0  0
 22 61  1  0  0  0  0
 24 62  1  0  0  0  0
 24 63  1  0  0  0  0
 24 64  1  0  0  0  0
M  END
> <PUBCHEM_COMPOUND_CID>
62642

> <PUBCHEM_COMPOUND_CANONICALIZED>
1

> <PUBCHEM_CACTVS_COMPLEXITY>
291

> <PUBCHEM_CACTVS_HBOND_ACCEPTOR>
3

> <PUBCHEM_CACTVS_HBOND_DONOR>
0

> <PUBCHEM_CACTVS_ROTATABLE_BOND>
19

> <PUBCHEM_CACTVS_SUBSKEYS>
AAADcfB4MAAAAAAAAAAAAAAAEgAAAAAAAAAAAAAAAAAAAAAAAAAAGgAAAAAACBSggAICCAAABAAIAACQCAAAAAAAAAAAAAEAAAABABIAAAACAAAFAAACAAGIyKCAAAAAAAAAAAAAAAAAAAAAAAAAAAAAAA==

> <PUBCHEM_IUPAC_OPENEYE_NAME>
oxiran-2-ylmethyl octadecanoate

> <PUBCHEM_IUPAC_CAS_NAME>
octadecanoic acid 2-oxiranylmethyl ester

> <PUBCHEM_IUPAC_NAME_MARKUP>
oxiran-2-ylmethyl octadecanoate

> <PUBCHEM_IUPAC_NAME>
oxiran-2-ylmethyl octadecanoate

> <PUBCHEM_IUPAC_SYSTEMATIC_NAME>
oxiran-2-ylmethyl octadecanoate

> <PUBCHEM_IUPAC_TRADITIONAL_NAME>
stearic acid glycidyl ester

> <PUBCHEM_IUPAC_INCHI>
InChI=1S/C21H40O3/c1-2-3-4-5-6-7-8-9-10-11-12-13-14-15-16-17-21(22)24-19-20-18-23-20/h20H,2-19H2,1H3

> <PUBCHEM_IUPAC_INCHIKEY>
OUQGOXCIUOCDNN-UHFFFAOYSA-N

> <PUBCHEM_XLOGP3_AA>
8.2

> <PUBCHEM_EXACT_MASS>
340.29774513

> <PUBCHEM_MOLECULAR_FORMULA>
C21H40O3

> <PUBCHEM_MOLECULAR_WEIGHT>
340.5

> <PUBCHEM_SMILES>
CCCCCCCCCCCCCCCCCC(=O)OCC1CO1

> <PUBCHEM_CONNECTIVITY_SMILES>
CCCCCCCCCCCCCCCCCC(=O)OCC1CO1

> <PUBCHEM_CACTVS_TPSA>
38.8

> <PUBCHEM_MONOISOTOPIC_WEIGHT>
340.29774513

> <PUBCHEM_TOTAL_CHARGE>
0

> <PUBCHEM_HEAVY_ATOM_COUNT>
24

> <PUBCHEM_ATOM_DEF_STEREO_COUNT>
0

> <PUBCHEM_ATOM_UDEF_STEREO_COUNT>
1

> <PUBCHEM_BOND_DEF_STEREO_COUNT>
0

> <PUBCHEM_BOND_UDEF_STEREO_COUNT>
0

> <PUBCHEM_ISOTOPIC_ATOM_COUNT>
0

> <PUBCHEM_COMPONENT_COUNT>
1

> <PUBCHEM_CACTVS_TAUTO_COUNT>
-1

> <PUBCHEM_COORDINATE_TYPE>
1
5
255

> <PUBCHEM_BONDANNOTATIONS>
16  49  3

$$$$
