68149
  -OEChem-07172512342D

108107  0     0  0  0  0  0  0999 V2000
   15.8564   -0.0950    0.0000 O   0  0  0  0  0  0  0  0  0  0  0  0
   19.3205   -0.0950    0.0000 O   0  0  0  0  0  0  0  0  0  0  0  0
   14.9904    1.4050    0.0000 O   0  0  0  0  0  0  0  0  0  0  0  0
   20.1865    1.4050    0.0000 O   0  0  0  0  0  0  0  0  0  0  0  0
   17.5885   -1.0950    0.0000 O   0  0  0  0  0  0  0  0  0  0  0  0
    8.0622    0.4050    0.0000 C   0  0  0  0  0  0  0  0  0  0  0  0
   27.1147    0.4050    0.0000 C   0  0  0  0  0  0  0  0  0  0  0  0
    8.9282   -0.0950    0.0000 C   0  0  0  0  0  0  0  0  0  0  0  0
   26.2487   -0.0950    0.0000 C   0  0  0  0  0  0  0  0  0  0  0  0
    7.1962   -0.0950    0.0000 C   0  0  0  0  0  0  0  0  0  0  0  0
   27.9808   -0.0950    0.0000 C   0  0  0  0  0  0  0  0  0  0  0  0
    9.7942    0.4050    0.0000 C   0  0  0  0  0  0  0  0  0  0  0  0
   25.3827    0.4050    0.0000 C   0  0  0  0  0  0  0  0  0  0  0  0
    6.3301    0.4050    0.0000 C   0  0  0  0  0  0  0  0  0  0  0  0
   28.8468    0.4050    0.0000 C   0  0  0  0  0  0  0  0  0  0  0  0
   10.6603   -0.0950    0.0000 C   0  0  0  0  0  0  0  0  0  0  0  0
   24.5167   -0.0950    0.0000 C   0  0  0  0  0  0  0  0  0  0  0  0
    5.4641   -0.0950    0.0000 C   0  0  0  0  0  0  0  0  0  0  0  0
   29.7128   -0.0950    0.0000 C   0  0  0  0  0  0  0  0  0  0  0  0
   11.5263    0.4050    0.0000 C   0  0  0  0  0  0  0  0  0  0  0  0
   23.6506    0.4050    0.0000 C   0  0  0  0  0  0  0  0  0  0  0  0
    4.5981    0.4050    0.0000 C   0  0  0  0  0  0  0  0  0  0  0  0
   30.5788    0.4050    0.0000 C   0  0  0  0  0  0  0  0  0  0  0  0
   12.3923   -0.0950    0.0000 C   0  0  0  0  0  0  0  0  0  0  0  0
   22.7846   -0.0950    0.0000 C   0  0  0  0  0  0  0  0  0  0  0  0
    3.7321   -0.0950    0.0000 C   0  0  0  0  0  0  0  0  0  0  0  0
   31.4449   -0.0950    0.0000 C   0  0  0  0  0  0  0  0  0  0  0  0
   13.2583    0.4050    0.0000 C   0  0  0  0  0  0  0  0  0  0  0  0
   21.9186    0.4050    0.0000 C   0  0  0  0  0  0  0  0  0  0  0  0
    2.8660    0.4050    0.0000 C   0  0  0  0  0  0  0  0  0  0  0  0
   32.3109    0.4050    0.0000 C   0  0  0  0  0  0  0  0  0  0  0  0
   14.1244   -0.0950    0.0000 C   0  0  0  0  0  0  0  0  0  0  0  0
   21.0526   -0.0950    0.0000 C   0  0  0  0  0  0  0  0  0  0  0  0
    2.0000   -0.0950    0.0000 C   0  0  0  0  0  0  0  0  0  0  0  0
   33.1769   -0.0950    0.0000 C   0  0  0  0  0  0  0  0  0  0  0  0
   14.9904    0.4050    0.0000 C   0  0  0  0  0  0  0  0  0  0  0  0
   20.1865    0.4050    0.0000 C   0  0  0  0  0  0  0  0  0  0  0  0
   17.5885   -0.0950    0.0000 C   0  0  0  0  0  0  0  0  0  0  0  0
   16.7224    0.4050    0.0000 C   0  0  0  0  0  0  0  0  0  0  0  0
   18.4545    0.4050    0.0000 C   0  0  0  0  0  0  0  0  0  0  0  0
    8.4607    0.8799    0.0000 H   0  0  0  0  0  0  0  0  0  0  0  0
    7.6637    0.8799    0.0000 H   0  0  0  0  0  0  0  0  0  0  0  0
   27.5133    0.8799    0.0000 H   0  0  0  0  0  0  0  0  0  0  0  0
   26.7162    0.8799    0.0000 H   0  0  0  0  0  0  0  0  0  0  0  0
    8.5297   -0.5699    0.0000 H   0  0  0  0  0  0  0  0  0  0  0  0
    9.3267   -0.5699    0.0000 H   0  0  0  0  0  0  0  0  0  0  0  0
   25.8502   -0.5699    0.0000 H   0  0  0  0  0  0  0  0  0  0  0  0
   26.6472   -0.5699    0.0000 H   0  0  0  0  0  0  0  0  0  0  0  0
    6.7976   -0.5699    0.0000 H   0  0  0  0  0  0  0  0  0  0  0  0
    7.5947   -0.5699    0.0000 H   0  0  0  0  0  0  0  0  0  0  0  0
   27.5822   -0.5699    0.0000 H   0  0  0  0  0  0  0  0  0  0  0  0
   28.3793   -0.5699    0.0000 H   0  0  0  0  0  0  0  0  0  0  0  0
   10.1928    0.8799    0.0000 H   0  0  0  0  0  0  0  0  0  0  0  0
    9.3957    0.8799    0.0000 H   0  0  0  0  0  0  0  0  0  0  0  0
   25.7812    0.8799    0.0000 H   0  0  0  0  0  0  0  0  0  0  0  0
   24.9842    0.8799    0.0000 H   0  0  0  0  0  0  0  0  0  0  0  0
    6.7287    0.8799    0.0000 H   0  0  0  0  0  0  0  0  0  0  0  0
    5.9316    0.8799    0.0000 H   0  0  0  0  0  0  0  0  0  0  0  0
   29.2453    0.8799    0.0000 H   0  0  0  0  0  0  0  0  0  0  0  0
   28.4483    0.8799    0.0000 H   0  0  0  0  0  0  0  0  0  0  0  0
   10.2617   -0.5699    0.0000 H   0  0  0  0  0  0  0  0  0  0  0  0
   11.0588   -0.5699    0.0000 H   0  0  0  0  0  0  0  0  0  0  0  0
   24.1181   -0.5699    0.0000 H   0  0  0  0  0  0  0  0  0  0  0  0
   24.9152   -0.5699    0.0000 H   0  0  0  0  0  0  0  0  0  0  0  0
    5.0656   -0.5699    0.0000 H   0  0  0  0  0  0  0  0  0  0  0  0
    5.8626   -0.5699    0.0000 H   0  0  0  0  0  0  0  0  0  0  0  0
   29.3143   -0.5699    0.0000 H   0  0  0  0  0  0  0  0  0  0  0  0
   30.1113   -0.5699    0.0000 H   0  0  0  0  0  0  0  0  0  0  0  0
   11.9248    0.8799    0.0000 H   0  0  0  0  0  0  0  0  0  0  0  0
   11.1278    0.8799    0.0000 H   0  0  0  0  0  0  0  0  0  0  0  0
   24.0492    0.8799    0.0000 H   0  0  0  0  0  0  0  0  0  0  0  0
   23.2521    0.8799    0.0000 H   0  0  0  0  0  0  0  0  0  0  0  0
    4.9966    0.8799    0.0000 H   0  0  0  0  0  0  0  0  0  0  0  0
    4.1996    0.8799    0.0000 H   0  0  0  0  0  0  0  0  0  0  0  0
   30.9774    0.8799    0.0000 H   0  0  0  0  0  0  0  0  0  0  0  0
   30.1803    0.8799    0.0000 H   0  0  0  0  0  0  0  0  0  0  0  0
   11.9938   -0.5699    0.0000 H   0  0  0  0  0  0  0  0  0  0  0  0
   12.7908   -0.5699    0.0000 H   0  0  0  0  0  0  0  0  0  0  0  0
   22.3861   -0.5699    0.0000 H   0  0  0  0  0  0  0  0  0  0  0  0
   23.1831   -0.5699    0.0000 H   0  0  0  0  0  0  0  0  0  0  0  0
    3.3335   -0.5699    0.0000 H   0  0  0  0  0  0  0  0  0  0  0  0
    4.1306   -0.5699    0.0000 H   0  0  0  0  0  0  0  0  0  0  0  0
   31.0463   -0.5699    0.0000 H   0  0  0  0  0  0  0  0  0  0  0  0
   31.8434   -0.5699    0.0000 H   0  0  0  0  0  0  0  0  0  0  0  0
   13.6569    0.8799    0.0000 H   0  0  0  0  0  0  0  0  0  0  0  0
   12.8598    0.8799    0.0000 H   0  0  0  0  0  0  0  0  0  0  0  0
   22.3171    0.8799    0.0000 H   0  0  0  0  0  0  0  0  0  0  0  0
   21.5201    0.8799    0.0000 H   0  0  0  0  0  0  0  0  0  0  0  0
    3.2646    0.8799    0.0000 H   0  0  0  0  0  0  0  0  0  0  0  0
    2.4675    0.8799    0.0000 H   0  0  0  0  0  0  0  0  0  0  0  0
   32.7094    0.8799    0.0000 H   0  0  0  0  0  0  0  0  0  0  0  0
   31.9124    0.8799    0.0000 H   0  0  0  0  0  0  0  0  0  0  0  0
   13.7258   -0.5699    0.0000 H   0  0  0  0  0  0  0  0  0  0  0  0
   14.5229   -0.5699    0.0000 H   0  0  0  0  0  0  0  0  0  0  0  0
   20.6540   -0.5699    0.0000 H   0  0  0  0  0  0  0  0  0  0  0  0
   21.4511   -0.5699    0.0000 H   0  0  0  0  0  0  0  0  0  0  0  0
    1.6900    0.4419    0.0000 H   0  0  0  0  0  0  0  0  0  0  0  0
    1.4631   -0.4050    0.0000 H   0  0  0  0  0  0  0  0  0  0  0  0
    2.3100   -0.6319    0.0000 H   0  0  0  0  0  0  0  0  0  0  0  0
   32.8669   -0.6319    0.0000 H   0  0  0  0  0  0  0  0  0  0  0  0
   33.7138   -0.4050    0.0000 H   0  0  0  0  0  0  0  0  0  0  0  0
   33.4869    0.4419    0.0000 H   0  0  0  0  0  0  0  0  0  0  0  0
   18.1254   -0.4050    0.0000 H   0  0  0  0  0  0  0  0  0  0  0  0
   17.1210    0.8799    0.0000 H   0  0  0  0  0  0  0  0  0  0  0  0
   16.3239    0.8799    0.0000 H   0  0  0  0  0  0  0  0  0  0  0  0
   18.8530    0.8799    0.0000 H   0  0  0  0  0  0  0  0  0  0  0  0
   18.0560    0.8799    0.0000 H   0  0  0  0  0  0  0  0  0  0  0  0
   17.0515   -1.4050    0.0000 H   0  0  0  0  0  0  0  0  0  0  0  0
  1 36  1  0  0  0  0
  1 39  1  0  0  0  0
  2 37  1  0  0  0  0
  2 40  1  0  0  0  0
  3 36  2  0  0  0  0
  4 37  2  0  0  0  0
  5 38  1  0  0  0  0
  5108  1  0  0  0  0
  6  8  1  0  0  0  0
  6 10  1  0  0  0  0
  6 41  1  0  0  0  0
  6 42  1  0  0  0  0
  7  9  1  0  0  0  0
  7 11  1  0  0  0  0
  7 43  1  0  0  0  0
  7 44  1  0  0  0  0
  8 12  1  0  0  0  0
  8 45  1  0  0  0  0
  8 46  1  0  0  0  0
  9 13  1  0  0  0  0
  9 47  1  0  0  0  0
  9 48  1  0  0  0  0
 10 14  1  0  0  0  0
 10 49  1  0  0  0  0
 10 50  1  0  0  0  0
 11 15  1  0  0  0  0
 11 51  1  0  0  0  0
 11 52  1  0  0  0  0
 12 16  1  0  0  0  0
 12 53  1  0  0  0  0
 12 54  1  0  0  0  0
 13 17  1  0  0  0  0
 13 55  1  0  0  0  0
 13 56  1  0  0  0  0
 14 18  1  0  0  0  0
 14 57  1  0  0  0  0
 14 58  1  0  0  0  0
 15 19  1  0  0  0  0
 15 59  1  0  0  0  0
 15 60  1  0  0  0  0
 16 20  1  0  0  0  0
 16 61  1  0  0  0  0
 16 62  1  0  0  0  0
 17 21  1  0  0  0  0
 17 63  1  0  0  0  0
 17 64  1  0  0  0  0
 18 22  1  0  0  0  0
 18 65  1  0  0  0  0
 18 66  1  0  0  0  0
 19 23  1  0  0  0  0
 19 67  1  0  0  0  0
 19 68  1  0  0  0  0
 20 24  1  0  0  0  0
 20 69  1  0  0  0  0
 20 70  1  0  0  0  0
 21 25  1  0  0  0  0
 21 71  1  0  0  0  0
 21 72  1  0  0  0  0
 22 26  1  0  0  0  0
 22 73  1  0  0  0  0
 22 74  1  0  0  0  0
 23 27  1  0  0  0  0
 23 75  1  0  0  0  0
 23 76  1  0  0  0  0
 24 28  1  0  0  0  0
 24 77  1  0  0  0  0
 24 78  1  0  0  0  0
 25 29  1  0  0  0  0
 25 79  1  0  0  0  0
 25 80  1  0  0  0  0
 26 30  1  0  0  0  0
 26 81  1  0  0  0  0
 26 82  1  0  0  0  0
 27 31  1  0  0  0  0
 27 83  1  0  0  0  0
 27 84  1  0  0  0  0
 28 32  1  0  0  0  0
 28 85  1  0  0  0  0
 28 86  1  0  0  0  0
 29 33  1  0  0  0  0
 29 87  1  0  0  0  0
 29 88  1  0  0  0  0
 30 34  1  0  0  0  0
 30 89  1  0  0  0  0
 30 90  1  0  0  0  0
 31 35  1  0  0  0  0
 31 91  1  0  0  0  0
 31 92  1  0  0  0  0
 32 36  1  0  0  0  0
 32 93  1  0  0  0  0
 32 94  1  0  0  0  0
 33 37  1  0  0  0  0
 33 95  1  0  0  0  0
 33 96  1  0  0  0  0
 34 97  1  0  0  0  0
 34 98  1  0  0  0  0
 34 99  1  0  0  0  0
 35100  1  0  0  0  0
 35101  1  0  0  0  0
 35102  1  0  0  0  0
 38 39  1  0  0  0  0
 38 40  1  0  0  0  0
 38103  1  0  0  0  0
 39104  1  0  0  0  0
 39105  1  0  0  0  0
 40106  1  0  0  0  0
 40107  1  0  0  0  0
M  END
> <PUBCHEM_COMPOUND_CID>
68149

> <PUBCHEM_COMPOUND_CANONICALIZED>
1

> <PUBCHEM_CACTVS_COMPLEXITY>
490

> <PUBCHEM_CACTVS_HBOND_ACCEPTOR>
5

> <PUBCHEM_CACTVS_HBOND_DONOR>
1

> <PUBCHEM_CACTVS_ROTATABLE_BOND>
34

> <PUBCHEM_CACTVS_SUBSKEYS>
AAADcfB8OAAAAAAAAAAAAAAAAAAAAAAAAAAAAAAAAAAAAAAAAAAAGgAACAAACBSggAICCAAABgAIAACQCAAAAAAAAAAAAAEAAAABEBIAAAACAAAFAAADAAGIyKCAAAAAAAAAAAAAAAAAAAAAAAAAAAAAAA==

> <PUBCHEM_IUPAC_OPENEYE_NAME>
(3-hexadecanoyloxy-2-hydroxy-propyl) hexadecanoate

> <PUBCHEM_IUPAC_CAS_NAME>
hexadecanoic acid [2-hydroxy-3-(1-oxohexadecoxy)propyl] ester

> <PUBCHEM_IUPAC_NAME_MARKUP>
(3-hexadecanoyloxy-2-hydroxypropyl) hexadecanoate

> <PUBCHEM_IUPAC_NAME>
(3-hexadecanoyloxy-2-hydroxypropyl) hexadecanoate

> <PUBCHEM_IUPAC_SYSTEMATIC_NAME>
(3-hexadecanoyloxy-2-oxidanyl-propyl) hexadecanoate

> <PUBCHEM_IUPAC_TRADITIONAL_NAME>
palmitic acid (3-hexadecanoyloxy-2-hydroxy-propyl) ester

> <PUBCHEM_IUPAC_INCHI>
InChI=1S/C35H68O5/c1-3-5-7-9-11-13-15-17-19-21-23-25-27-29-34(37)39-31-33(36)32-40-35(38)30-28-26-24-22-20-18-16-14-12-10-8-6-4-2/h33,36H,3-32H2,1-2H3

> <PUBCHEM_IUPAC_INCHIKEY>
GFAZGHREJPXDMH-UHFFFAOYSA-N

> <PUBCHEM_XLOGP3_AA>
14

> <PUBCHEM_EXACT_MASS>
568.50667527

> <PUBCHEM_MOLECULAR_FORMULA>
C35H68O5

> <PUBCHEM_MOLECULAR_WEIGHT>
568.9

> <PUBCHEM_SMILES>
CCCCCCCCCCCCCCCC(=O)OCC(COC(=O)CCCCCCCCCCCCCCC)O

> <PUBCHEM_CONNECTIVITY_SMILES>
CCCCCCCCCCCCCCCC(=O)OCC(COC(=O)CCCCCCCCCCCCCCC)O

> <PUBCHEM_CACTVS_TPSA>
72.8

> <PUBCHEM_MONOISOTOPIC_WEIGHT>
568.50667527

> <PUBCHEM_TOTAL_CHARGE>
0

> <PUBCHEM_HEAVY_ATOM_COUNT>
40

> <PUBCHEM_ATOM_DEF_STEREO_COUNT>
0

> <PUBCHEM_ATOM_UDEF_STEREO_COUNT>
0

> <PUBCHEM_BOND_DEF_STEREO_COUNT>
0

> <PUBCHEM_BOND_UDEF_STEREO_COUNT>
0

> <PUBCHEM_ISOTOPIC_ATOM_COUNT>
0

> <PUBCHEM_COMPONENT_COUNT>
1

> <PUBCHEM_CACTVS_TAUTO_COUNT>
-1

> <PUBCHEM_COORDINATE_TYPE>
1
5
255

$$$$
